<?xml version="1.0" encoding="UTF-8"?>
<!DOCTYPE network SYSTEM "http://www.matsim.org/files/dtd/network_v2.dtd">
<network>

<!-- ====================================================================== -->

	<nodes>
		<node id="10161" x="319908.0" y="6274743.9999" >
		</node>
		<node id="10168" x="309816.5" y="6264689.9999" >
		</node>
		<node id="10169" x="307597.0" y="6263165.9999" >
		</node>
		<node id="10170" x="312713.9062999999" y="6256315.9999" >
		</node>
		<node id="10171" x="313034.5312999999" y="6256304.9999" >
		</node>
		<node id="10172" x="314098.1875" y="6255340.4999" >
		</node>
		<node id="10173" x="314054.75" y="6255385.4999" >
		</node>
		<node id="10174" x="308428.0" y="6262388.9999" >
		</node>
		<node id="10175" x="306800.0" y="6262512.9999" >
		</node>
		<node id="10198" x="284108.8437999999" y="6260756.9999" >
		</node>
		<node id="10199" x="284427.0625" y="6260475.9999" >
		</node>
		<node id="10200" x="283800.5625" y="6261013.9999" >
		</node>
		<node id="10201" x="287148.0" y="6259328.9999" >
		</node>
		<node id="10202" x="287728.0" y="6259229.9999" >
		</node>
		<node id="10203" x="291500.0" y="6259648.9999" >
		</node>
		<node id="10204" x="291907.0" y="6259651.9999" >
		</node>
		<node id="10205" x="296525.0" y="6258919.9999" >
		</node>
		<node id="10206" x="297294.0" y="6258841.9999" >
		</node>
		<node id="10207" x="300267.0" y="6258533.9999" >
		</node>
		<node id="10208" x="301443.0" y="6258156.9999" >
		</node>
		<node id="10209" x="304039.0" y="6257795.9999" >
		</node>
		<node id="10210" x="306396.0" y="6257570.9999" >
		</node>
		<node id="10211" x="307299.0" y="6257440.9999" >
		</node>
		<node id="10212" x="311054.0" y="6256506.9999" >
		</node>
		<node id="10213" x="311801.0" y="6256298.9999" >
		</node>
		<node id="10214" x="315997.0" y="6255290.9999" >
		</node>
		<node id="10220" x="293631.4375" y="6259651.4999" >
		</node>
		<node id="10221" x="293219.0" y="6259602.9999" >
		</node>
		<node id="10222" x="293918.0" y="6259520.9999" >
		</node>
		<node id="10223" x="294109.0" y="6259453.9999" >
		</node>
		<node id="10224" x="293408.0" y="6259552.9999" >
		</node>
		<node id="10225" x="308167.0" y="6257382.9999" >
		</node>
		<node id="10227" x="308143.0" y="6257369.9999" >
		</node>
		<node id="10228" x="313845.0" y="6255508.9999" >
		</node>
		<node id="10229" x="315119.0" y="6255194.9999" >
		</node>
		<node id="10236" x="315157.0" y="6255171.9999" >
		</node>
		<node id="10237" x="313854.0" y="6255480.9999" >
		</node>
		<node id="10245" x="307139.0" y="6258008.9999" >
		</node>
		<node id="10246" x="316563.8437999999" y="6254998.9999" >
		</node>
		<node id="10247" x="316587.3437999999" y="6254999.9999" >
		</node>
		<node id="10263" x="315981.0" y="6255284.9999" >
		</node>
		<node id="10264" x="311740.0" y="6256293.9999" >
		</node>
		<node id="10265" x="311054.0" y="6256480.9999" >
		</node>
		<node id="10266" x="307579.0" y="6257380.9999" >
		</node>
		<node id="10267" x="306580.0" y="6257523.9999" >
		</node>
		<node id="10268" x="304047.0" y="6257782.9999" >
		</node>
		<node id="10269" x="301436.0" y="6258132.9999" >
		</node>
		<node id="10270" x="300329.0" y="6258478.9999" >
		</node>
		<node id="10271" x="297392.0" y="6258804.9999" >
		</node>
		<node id="10272" x="296581.0" y="6258878.9999" >
		</node>
		<node id="10273" x="291911.0" y="6259626.9999" >
		</node>
		<node id="10274" x="291500.0" y="6259618.9999" >
		</node>
		<node id="10277" x="287657.0" y="6259210.9999" >
		</node>
		<node id="10278" x="287134.0" y="6259292.9999" >
		</node>
		<node id="10280" x="284400.1875" y="6260449.4999" >
		</node>
		<node id="10282" x="284021.6562999999" y="6260785.9999" >
		</node>
		<node id="10348" x="313185.1875" y="6256112.9999" >
		</node>
		<node id="10349" x="313189.0" y="6256091.9999" >
		</node>
		<node id="10350" x="313203.5937999999" y="6256024.4999" >
		</node>
		<node id="10351" x="313484.0" y="6255813.9999" >
		</node>
		<node id="10352" x="311050.5312999999" y="6256693.9999" >
		</node>
		<node id="10353" x="313136.3437999999" y="6256262.4999" >
		</node>
		<node id="10354" x="312409.0" y="6257263.9999" >
		</node>
		<node id="10360" x="289725.0" y="6279668.9999" >
		</node>
		<node id="10363" x="312393.0" y="6257182.9999" >
		</node>
		<node id="10374" x="310696.0" y="6257705.9999" >
		</node>
		<node id="10375" x="310968.0" y="6257635.9999" >
		</node>
		<node id="10391" x="281640.5625" y="6282819.4999" >
		</node>
		<node id="10392" x="282498.0" y="6281701.9999" >
		</node>
		<node id="10393" x="285429.0" y="6281951.9999" >
		</node>
		<node id="10394" x="288263.0" y="6283034.9999" >
		</node>
		<node id="10395" x="287845.0" y="6282660.9999" >
		</node>
		<node id="10398" x="312039.4062999999" y="6257358.4999" >
		</node>
		<node id="10404" x="299390.0" y="6284296.9999" >
		</node>
		<node id="10405" x="297036.0" y="6285534.9999" >
		</node>
		<node id="10417" x="299179.0" y="6280771.9999" >
		</node>
		<node id="10419" x="312996.0937999999" y="6257705.9999" >
		</node>
		<node id="10420" x="296381.0" y="6282577.9999" >
		</node>
		<node id="10432" x="291907.0" y="6283954.9999" >
		</node>
		<node id="10433" x="307091.0" y="6257864.9999" >
		</node>
		<node id="10434" x="306746.0" y="6257859.9999" >
		</node>
		<node id="10435" x="307612.0" y="6257657.9999" >
		</node>
		<node id="10436" x="308162.375" y="6257546.4999" >
		</node>
		<node id="10437" x="308058.0" y="6258538.9999" >
		</node>
		<node id="10438" x="308106.0" y="6258071.9999" >
		</node>
		<node id="10439" x="306149.0" y="6259623.9999" >
		</node>
		<node id="1044" x="299733.0" y="6252081.9999" >
		</node>
		<node id="10440" x="290050.0" y="6283507.9999" >
		</node>
		<node id="10441" x="289815.0" y="6281520.9999" >
		</node>
		<node id="10443" x="294835.0" y="6279121.9999" >
		</node>
		<node id="10444" x="288526.0" y="6277890.9999" >
		</node>
		<node id="10445" x="307640.0" y="6261763.9999" >
		</node>
		<node id="10447" x="288351.0" y="6278849.9999" >
		</node>
		<node id="10448" x="288889.0" y="6279356.9999" >
		</node>
		<node id="10449" x="288809.0" y="6280717.9999" >
		</node>
		<node id="10453" x="311751.0" y="6270042.9999" >
		</node>
		<node id="10473" x="310563.0" y="6266648.9999" >
		</node>
		<node id="10474" x="308898.0" y="6268038.9999" >
		</node>
		<node id="10479" x="298161.5" y="6260024.9999" >
		</node>
		<node id="10480" x="307322.8125" y="6265452.9999" >
		</node>
		<node id="10481" x="308005.0" y="6265354.9999" >
		</node>
		<node id="10483" x="301333.4375" y="6244539.9999" >
		</node>
		<node id="10484" x="300373.0" y="6244679.9999" >
		</node>
		<node id="10490" x="298360.0" y="6244970.9999" >
		</node>
		<node id="10496" x="312274.0" y="6265440.9999" >
		</node>
		<node id="10512" x="288669.0" y="6261110.9999" >
		</node>
		<node id="10513" x="288303.0" y="6263562.9999" >
		</node>
		<node id="10514" x="291673.8437999999" y="6272135.4999" >
		</node>
		<node id="10515" x="289728.0" y="6272433.9999" >
		</node>
		<node id="10516" x="288649.0" y="6272931.9999" >
		</node>
		<node id="10517" x="286530.0" y="6271839.9999" >
		</node>
		<node id="10518" x="292831.0" y="6249484.9999" >
		</node>
		<node id="10519" x="292650.0" y="6248234.9999" >
		</node>
		<node id="10520" x="288232.0" y="6249348.9999" >
		</node>
		<node id="10521" x="291114.0" y="6248478.9999" >
		</node>
		<node id="10522" x="289814.8437999999" y="6263574.4999" >
		</node>
		<node id="10523" x="291137.0" y="6263394.9999" >
		</node>
		<node id="10524" x="291128.0" y="6263639.9999" >
		</node>
		<node id="10544" x="306597.0" y="6265023.9999" >
		</node>
		<node id="10545" x="306588.0" y="6264991.9999" >
		</node>
		<node id="10549" x="306601.0" y="6264989.9999" >
		</node>
		<node id="1055" x="298967.0" y="6250152.9999" >
		</node>
		<node id="10550" x="306611.0" y="6265016.9999" >
		</node>
		<node id="10565" x="309980.0" y="6258150.9999" >
		</node>
		<node id="10566" x="309169.0" y="6258568.9999" >
		</node>
		<node id="10623" x="301715.0" y="6246824.9999" >
		</node>
		<node id="10624" x="316415.5937999999" y="6266603.4999" >
		</node>
		<node id="10625" x="315589.0" y="6266955.9999" >
		</node>
		<node id="10626" x="309123.6562999999" y="6266389.4999" >
		</node>
		<node id="10634" x="290140.0" y="6263780.9999" >
		</node>
		<node id="10638" x="315483.0" y="6266473.9999" >
		</node>
		<node id="10639" x="314166.0" y="6267282.9999" >
		</node>
		<node id="10640" x="313514.5" y="6266824.4999" >
		</node>
		<node id="10641" x="314192.0" y="6267815.9999" >
		</node>
		<node id="10655" x="306043.0" y="6261023.9999" >
		</node>
		<node id="1072" x="299781.0" y="6255329.9999" >
		</node>
		<node id="1073" x="300013.0" y="6253600.9999" >
		</node>
		<node id="10883" x="323368.125" y="6278925.9999" >
		</node>
		<node id="10884" x="315514.0" y="6278296.9999" >
		</node>
		<node id="10885" x="318914.0" y="6274575.9999" >
		</node>
		<node id="10886" x="318507.0" y="6274639.9999" >
		</node>
		<node id="10887" x="316591.0" y="6275573.9999" >
		</node>
		<node id="10889" x="315280.9062999999" y="6280176.9999" >
		</node>
		<node id="10890" x="316408.0" y="6278555.9999" >
		</node>
		<node id="10891" x="316938.0" y="6268225.9999" >
		</node>
		<node id="10892" x="317241.0" y="6271371.9999" >
		</node>
		<node id="10893" x="318055.0" y="6272773.9999" >
		</node>
		<node id="10894" x="317463.5625" y="6269814.4999" >
		</node>
		<node id="10895" x="317226.9687999999" y="6267667.4999" >
		</node>
		<node id="10896" x="317431.0" y="6267353.9999" >
		</node>
		<node id="10919" x="316377.0937999999" y="6274736.9999" >
		</node>
		<node id="10922" x="307415.6562999999" y="6259424.4999" >
		</node>
		<node id="10923" x="305401.0" y="6264071.9999" >
		</node>
		<node id="10929" x="303670.5937999999" y="6265979.4999" >
		</node>
		<node id="10935" x="317747.0" y="6265159.9999" >
		</node>
		<node id="10936" x="316443.6875" y="6267479.9999" >
		</node>
		<node id="10937" x="316171.6875" y="6267716.9999" >
		</node>
		<node id="10938" x="316731.0" y="6267890.9999" >
		</node>
		<node id="10944" x="316266.9687999999" y="6265940.4999" >
		</node>
		<node id="10945" x="315731.0" y="6268677.9999" >
		</node>
		<node id="10946" x="316446.0" y="6270046.9999" >
		</node>
		<node id="10953" x="287510.0" y="6265215.9999" >
		</node>
		<node id="10954" x="312880.0" y="6266632.9999" >
		</node>
		<node id="10956" x="313538.0" y="6271210.9999" >
		</node>
		<node id="10957" x="308916.875" y="6266920.4999" >
		</node>
		<node id="10958" x="308197.125" y="6268712.9999" >
		</node>
		<node id="10959" x="309956.0" y="6268097.9999" >
		</node>
		<node id="10960" x="311038.6875" y="6267469.4999" >
		</node>
		<node id="10961" x="312201.0" y="6266373.9999" >
		</node>
		<node id="10962" x="313394.4375" y="6266631.4999" >
		</node>
		<node id="10963" x="315082.8437999999" y="6265569.4999" >
		</node>
		<node id="10964" x="315662.0" y="6270759.9999" >
		</node>
		<node id="10965" x="310830.0" y="6269261.9999" >
		</node>
		<node id="10966" x="315622.0" y="6271352.9999" >
		</node>
		<node id="10967" x="305674.0" y="6275887.9999" >
		</node>
		<node id="10968" x="302868.4687999999" y="6273866.9999" >
		</node>
		<node id="10969" x="307206.0" y="6282002.9999" >
		</node>
		<node id="10970" x="309407.0" y="6282401.9999" >
		</node>
		<node id="10971" x="306244.375" y="6271811.9999" >
		</node>
		<node id="10972" x="307427.5937999999" y="6270214.4999" >
		</node>
		<node id="10973" x="308889.0" y="6274050.9999" >
		</node>
		<node id="10974" x="307478.0" y="6273487.9999" >
		</node>
		<node id="10975" x="315365.0" y="6287631.9999" >
		</node>
		<node id="10976" x="291722.0" y="6280054.9999" >
		</node>
		<node id="10977" x="309502.0" y="6288784.9999" >
		</node>
		<node id="10979" x="291547.0" y="6279722.9999" >
		</node>
		<node id="10981" x="291912.0" y="6279513.9999" >
		</node>
		<node id="10983" x="288979.4062999999" y="6266313.4999" >
		</node>
		<node id="10984" x="304719.5312999999" y="6273288.4999" >
		</node>
		<node id="10985" x="301423.1562999999" y="6275000.9999" >
		</node>
		<node id="10986" x="304269.0" y="6276479.9999" >
		</node>
		<node id="10987" x="302675.0" y="6277863.9999" >
		</node>
		<node id="10988" x="299913.0" y="6278802.9999" >
		</node>
		<node id="10989" x="301158.0" y="6279622.9999" >
		</node>
		<node id="10990" x="301413.0" y="6281673.9999" >
		</node>
		<node id="10992" x="299035.0" y="6278410.4999" >
		</node>
		<node id="10993" x="297313.4687999999" y="6278701.9999" >
		</node>
		<node id="10994" x="295851.0" y="6279043.9999" >
		</node>
		<node id="10995" x="294740.0" y="6280445.9999" >
		</node>
		<node id="10996" x="292094.0" y="6279862.9999" >
		</node>
		<node id="10997" x="291636.0" y="6279892.9999" >
		</node>
		<node id="10998" x="290939.5625" y="6280264.4999" >
		</node>
		<node id="10999" x="290594.3125" y="6278694.9999" >
		</node>
		<node id="11000" x="298133.8125" y="6279471.9999" >
		</node>
		<node id="11001" x="298074.0" y="6279556.9999" >
		</node>
		<node id="11002" x="294487.0" y="6275576.9999" >
		</node>
		<node id="11003" x="290012.0312999999" y="6274905.9999" >
		</node>
		<node id="11004" x="304013.0" y="6278184.9999" >
		</node>
		<node id="11005" x="289299.0" y="6281133.9999" >
		</node>
		<node id="11006" x="291405.0" y="6280015.9999" >
		</node>
		<node id="11007" x="286739.0" y="6267297.9999" >
		</node>
		<node id="11008" x="293696.0" y="6274284.9999" >
		</node>
		<node id="11009" x="290314.0" y="6270568.9999" >
		</node>
		<node id="11010" x="292006.0" y="6279694.9999" >
		</node>
		<node id="11011" x="289388.0" y="6269901.9999" >
		</node>
		<node id="11012" x="289184.5625" y="6267121.9999" >
		</node>
		<node id="11013" x="297176.0" y="6278734.9999" >
		</node>
		<node id="11014" x="288541.0" y="6264876.9999" >
		</node>
		<node id="11015" x="286386.3125" y="6265379.4999" >
		</node>
		<node id="11016" x="286994.0" y="6268895.9999" >
		</node>
		<node id="11017" x="284457.0312999999" y="6270074.9999" >
		</node>
		<node id="11018" x="285816.0" y="6263085.9999" >
		</node>
		<node id="11019" x="285711.625" y="6261950.9999" >
		</node>
		<node id="11020" x="286503.0" y="6262838.9999" >
		</node>
		<node id="11021" x="285071.6875" y="6263690.4999" >
		</node>
		<node id="11022" x="287205.0" y="6262670.9999" >
		</node>
		<node id="11023" x="286974.0312999999" y="6261770.9999" >
		</node>
		<node id="11024" x="287903.0" y="6261645.9999" >
		</node>
		<node id="11025" x="287236.0" y="6262806.9999" >
		</node>
		<node id="11026" x="288095.0312999999" y="6262449.4999" >
		</node>
		<node id="11027" x="288281.0" y="6263554.9999" >
		</node>
		<node id="11028" x="288900.0" y="6262636.9999" >
		</node>
		<node id="11029" x="288786.0" y="6261528.9999" >
		</node>
		<node id="11030" x="288902.0" y="6262252.9999" >
		</node>
		<node id="11031" x="293811.0" y="6261117.9999" >
		</node>
		<node id="11032" x="288126.625" y="6260361.9999" >
		</node>
		<node id="11033" x="293772.0" y="6260762.9999" >
		</node>
		<node id="11034" x="294366.9062999999" y="6260962.4999" >
		</node>
		<node id="11035" x="295038.4687999999" y="6260789.9999" >
		</node>
		<node id="11036" x="296367.0" y="6260477.9999" >
		</node>
		<node id="11037" x="294458.0" y="6261723.9999" >
		</node>
		<node id="11038" x="294453.0" y="6262424.9999" >
		</node>
		<node id="11039" x="284320.25" y="6260619.9999" >
		</node>
		<node id="11040" x="288096.0" y="6260094.9999" >
		</node>
		<node id="11041" x="293602.2812999999" y="6259422.9999" >
		</node>
		<node id="11042" x="284226.625" y="6260555.4999" >
		</node>
		<node id="11043" x="311310.0" y="6271929.9999" >
		</node>
		<node id="11044" x="287804.0" y="6259647.9999" >
		</node>
		<node id="11045" x="294653.25" y="6254316.9999" >
		</node>
		<node id="11046" x="293402.0" y="6257664.9999" >
		</node>
		<node id="11047" x="291325.0" y="6249690.9999" >
		</node>
		<node id="11048" x="288744.0" y="6250117.9999" >
		</node>
		<node id="11049" x="287070.0" y="6250515.9999" >
		</node>
		<node id="11050" x="286079.0" y="6252477.9999" >
		</node>
		<node id="11051" x="294152.0" y="6255835.9999" >
		</node>
		<node id="11052" x="282648.0" y="6253473.9999" >
		</node>
		<node id="11053" x="281729.0" y="6250301.9999" >
		</node>
		<node id="11054" x="289028.0" y="6259418.9999" >
		</node>
		<node id="11055" x="281445.0" y="6250259.9999" >
		</node>
		<node id="11056" x="284838.0" y="6261011.9999" >
		</node>
		<node id="11057" x="295998.0" y="6261368.9999" >
		</node>
		<node id="11058" x="286344.0" y="6249393.9999" >
		</node>
		<node id="11059" x="295874.0" y="6248888.9999" >
		</node>
		<node id="11060" x="297273.0" y="6248913.9999" >
		</node>
		<node id="11061" x="295805.0" y="6261641.9999" >
		</node>
		<node id="11062" x="305326.0" y="6264001.9999" >
		</node>
		<node id="11063" x="295727.6562999999" y="6260617.9999" >
		</node>
		<node id="11064" x="295188.0" y="6262896.9999" >
		</node>
		<node id="11065" x="294832.75" y="6264437.4999" >
		</node>
		<node id="11066" x="294470.0" y="6266702.9999" >
		</node>
		<node id="11067" x="294821.0" y="6270685.9999" >
		</node>
		<node id="11068" x="296314.0" y="6272522.9999" >
		</node>
		<node id="11069" x="294508.5625" y="6262185.9999" >
		</node>
		<node id="11070" x="294476.0" y="6261868.9999" >
		</node>
		<node id="11071" x="296531.7812999999" y="6260438.9999" >
		</node>
		<node id="11072" x="296868.0" y="6259445.9999" >
		</node>
		<node id="11073" x="303531.0" y="6261733.9999" >
		</node>
		<node id="11074" x="304747.0" y="6260758.9999" >
		</node>
		<node id="11075" x="304826.125" y="6261443.9999" >
		</node>
		<node id="11076" x="304904.5937999999" y="6262078.4999" >
		</node>
		<node id="11077" x="297021.6562999999" y="6258703.9999" >
		</node>
		<node id="11078" x="296040.0" y="6264895.9999" >
		</node>
		<node id="11079" x="296386.0" y="6263379.9999" >
		</node>
		<node id="11080" x="297521.3437999999" y="6261838.9999" >
		</node>
		<node id="11081" x="304999.0" y="6262721.9999" >
		</node>
		<node id="11082" x="304275.9375" y="6263350.4999" >
		</node>
		<node id="11083" x="304934.4375" y="6264102.9999" >
		</node>
		<node id="11084" x="302386.0" y="6269863.9999" >
		</node>
		<node id="11085" x="302845.0" y="6268901.9999" >
		</node>
		<node id="11086" x="304885.0" y="6269520.9999" >
		</node>
		<node id="11087" x="301708.0" y="6271294.9999" >
		</node>
		<node id="11088" x="300649.0" y="6270579.9999" >
		</node>
		<node id="11089" x="299078.0" y="6269240.9999" >
		</node>
		<node id="11090" x="299538.0" y="6268597.9999" >
		</node>
		<node id="11091" x="300692.5312999999" y="6265353.4999" >
		</node>
		<node id="11092" x="304773.0" y="6267677.9999" >
		</node>
		<node id="11093" x="303150.0" y="6267968.9999" >
		</node>
		<node id="11094" x="303374.0" y="6265666.9999" >
		</node>
		<node id="11095" x="307359.25" y="6267205.9999" >
		</node>
		<node id="11096" x="302991.0" y="6264234.9999" >
		</node>
		<node id="11097" x="305117.0" y="6262617.9999" >
		</node>
		<node id="11098" x="305164.0" y="6263985.9999" >
		</node>
		<node id="11099" x="305201.0" y="6261381.9999" >
		</node>
		<node id="11100" x="302678.0" y="6261851.9999" >
		</node>
		<node id="11101" x="302798.0" y="6262849.9999" >
		</node>
		<node id="11102" x="300234.0" y="6267060.9999" >
		</node>
		<node id="11103" x="300450.0" y="6263247.9999" >
		</node>
		<node id="11104" x="300043.375" y="6263310.9999" >
		</node>
		<node id="11105" x="300164.0" y="6264095.9999" >
		</node>
		<node id="11106" x="298058.0" y="6264161.9999" >
		</node>
		<node id="11107" x="297209.0" y="6264193.9999" >
		</node>
		<node id="11108" x="295932.625" y="6265315.4999" >
		</node>
		<node id="11110" x="294637.0" y="6268030.9999" >
		</node>
		<node id="11111" x="297082.3437999999" y="6263639.9999" >
		</node>
		<node id="11112" x="299435.0" y="6264117.9999" >
		</node>
		<node id="11113" x="297684.0" y="6263000.9999" >
		</node>
		<node id="11114" x="297205.8125" y="6260287.9999" >
		</node>
		<node id="11115" x="301349.75" y="6259190.9999" >
		</node>
		<node id="11116" x="300308.9687999999" y="6259468.4999" >
		</node>
		<node id="11117" x="300956.875" y="6260158.9999" >
		</node>
		<node id="11118" x="299905.0" y="6262417.9999" >
		</node>
		<node id="11119" x="302131.0" y="6258998.9999" >
		</node>
		<node id="11120" x="297965.0" y="6262719.9999" >
		</node>
		<node id="11121" x="301318.0" y="6258521.9999" >
		</node>
		<node id="11122" x="299194.0" y="6262529.9999" >
		</node>
		<node id="11123" x="302942.0" y="6258832.9999" >
		</node>
		<node id="11124" x="299026.0" y="6261995.9999" >
		</node>
		<node id="11125" x="304538.5" y="6258512.9999" >
		</node>
		<node id="11126" x="299855.0" y="6260690.9999" >
		</node>
		<node id="11127" x="298573.1875" y="6261737.9999" >
		</node>
		<node id="11128" x="298448.0" y="6261226.9999" >
		</node>
		<node id="11129" x="297866.4062999999" y="6261837.9999" >
		</node>
		<node id="11130" x="301132.0" y="6257317.9999" >
		</node>
		<node id="11131" x="302813.0" y="6257718.9999" >
		</node>
		<node id="11132" x="306990.3437999999" y="6263878.4999" >
		</node>
		<node id="11135" x="307030.6562999999" y="6265860.4999" >
		</node>
		<node id="11136" x="306128.0" y="6261488.9999" >
		</node>
		<node id="11137" x="305593.0" y="6258145.9999" >
		</node>
		<node id="11139" x="307425.125" y="6265709.4999" >
		</node>
		<node id="11140" x="307083.6562999999" y="6264575.9999" >
		</node>
		<node id="11141" x="308838.0" y="6263704.9999" >
		</node>
		<node id="11149" x="308507.0" y="6262393.9999" >
		</node>
		<node id="11150" x="308085.0" y="6262450.9999" >
		</node>
		<node id="11151" x="306916.6875" y="6263366.4999" >
		</node>
		<node id="11152" x="306053.0" y="6258930.9999" >
		</node>
		<node id="11153" x="306245.0" y="6260578.9999" >
		</node>
		<node id="11154" x="311376.0" y="6257764.9999" >
		</node>
		<node id="11155" x="307187.75" y="6258140.4999" >
		</node>
		<node id="11156" x="306738.0" y="6262081.9999" >
		</node>
		<node id="11158" x="307593.0" y="6261916.9999" >
		</node>
		<node id="11159" x="308437.0" y="6261656.9999" >
		</node>
		<node id="11161" x="306283.0" y="6261001.9999" >
		</node>
		<node id="11163" x="308526.0312999999" y="6260552.9999" >
		</node>
		<node id="11164" x="307352.0" y="6260766.9999" >
		</node>
		<node id="11165" x="307443.0625" y="6260323.4999" >
		</node>
		<node id="11166" x="306602.0937999999" y="6261184.4999" >
		</node>
		<node id="11167" x="307443.5625" y="6260036.9999" >
		</node>
		<node id="11168" x="307352.2812999999" y="6259265.9999" >
		</node>
		<node id="11169" x="307951.0" y="6259857.9999" >
		</node>
		<node id="11170" x="307348.0" y="6259053.9999" >
		</node>
		<node id="11171" x="307990.0" y="6258442.9999" >
		</node>
		<node id="11183" x="310974.0" y="6257905.9999" >
		</node>
		<node id="11184" x="310550.0" y="6257141.9999" >
		</node>
		<node id="11186" x="312468.0" y="6257788.9999" >
		</node>
		<node id="11187" x="312110.9687999999" y="6257510.4999" >
		</node>
		<node id="11188" x="312293.0" y="6257292.9999" >
		</node>
		<node id="11189" x="306964.6562999999" y="6263677.4999" >
		</node>
		<node id="11190" x="312069.6875" y="6256438.4999" >
		</node>
		<node id="11191" x="311609.9375" y="6256553.9999" >
		</node>
		<node id="11192" x="310471.4375" y="6256839.9999" >
		</node>
		<node id="11193" x="307611.0" y="6258658.9999" >
		</node>
		<node id="11194" x="309064.0312999999" y="6257176.9999" >
		</node>
		<node id="11195" x="308746.1875" y="6257293.9999" >
		</node>
		<node id="11196" x="308359.0" y="6257494.9999" >
		</node>
		<node id="11197" x="305939.2812999999" y="6257998.4999" >
		</node>
		<node id="11198" x="307278.0" y="6257727.9999" >
		</node>
		<node id="11208" x="307142.9062999999" y="6264990.4999" >
		</node>
		<node id="11217" x="312057.0" y="6255969.9999" >
		</node>
		<node id="11221" x="311094.0" y="6256133.9999" >
		</node>
		<node id="11292" x="300431.0" y="6249486.9999" >
		</node>
		<node id="11293" x="301133.0" y="6251992.9999" >
		</node>
		<node id="11295" x="301553.0" y="6254397.9999" >
		</node>
		<node id="11296" x="301335.0" y="6252564.9999" >
		</node>
		<node id="11307" x="313063.0" y="6257172.9999" >
		</node>
		<node id="11308" x="313210.6875" y="6256187.4999" >
		</node>
		<node id="11310" x="313339.0" y="6255240.9999" >
		</node>
		<node id="11326" x="301843.5" y="6247485.4999" >
		</node>
		<node id="11332" x="307145.0" y="6257334.9999" >
		</node>
		<node id="11348" x="307075.0" y="6257683.9999" >
		</node>
		<node id="11382" x="311548.0" y="6256408.9999" >
		</node>
		<node id="11389" x="314653.0" y="6256493.9999" >
		</node>
		<node id="11391" x="313668.0" y="6257183.9999" >
		</node>
		<node id="11392" x="314130.1562999999" y="6256111.4999" >
		</node>
		<node id="11393" x="314566.625" y="6256150.4999" >
		</node>
		<node id="1140" x="300779.0" y="6248321.9999" >
		</node>
		<node id="11413" x="311460.0" y="6256292.9999" >
		</node>
		<node id="1142" x="301691.0" y="6248099.9999" >
		</node>
		<node id="11420" x="314525.0" y="6255914.9999" >
		</node>
		<node id="11421" x="313845.0" y="6255559.9999" >
		</node>
		<node id="11422" x="312051.6875" y="6256189.4999" >
		</node>
		<node id="11423" x="310442.0" y="6256538.9999" >
		</node>
		<node id="11426" x="313759.9375" y="6255494.4999" >
		</node>
		<node id="11427" x="314365.0" y="6255161.9999" >
		</node>
		<node id="11428" x="314306.1562999999" y="6254900.4999" >
		</node>
		<node id="1143" x="284315.0" y="6248015.9999" >
		</node>
		<node id="11431" x="315360.3125" y="6255173.4999" >
		</node>
		<node id="11432" x="315355.1875" y="6255290.4999" >
		</node>
		<node id="11433" x="315335.6875" y="6255470.9999" >
		</node>
		<node id="11434" x="316115.0" y="6255254.9999" >
		</node>
		<node id="1148" x="301509.0" y="6246236.9999" >
		</node>
		<node id="11492" x="283251.0" y="6244906.9999" >
		</node>
		<node id="11493" x="285247.3437999999" y="6244504.9999" >
		</node>
		<node id="1151" x="300558.0" y="6245745.9999" >
		</node>
		<node id="1152" x="302321.0" y="6245527.9999" >
		</node>
		<node id="1156" x="300854.0" y="6244836.9999" >
		</node>
		<node id="1157" x="302136.0" y="6244824.9999" >
		</node>
		<node id="1159" x="300560.0" y="6243981.9999" >
		</node>
		<node id="1160" x="301508.0" y="6243805.9999" >
		</node>
		<node id="1161" x="283390.0" y="6243432.9999" >
		</node>
		<node id="1164" x="301471.0" y="6243351.9999" >
		</node>
		<node id="11742" x="290848.0" y="6280103.9999" >
		</node>
		<node id="1179" x="287682.0" y="6248615.9999" >
		</node>
		<node id="1180" x="290268.0" y="6248864.9999" >
		</node>
		<node id="1181" x="287586.0" y="6243661.9999" >
		</node>
		<node id="1182" x="292909.0" y="6248829.9999" >
		</node>
		<node id="1183" x="291086.0" y="6246428.9999" >
		</node>
		<node id="1184" x="289113.0" y="6244650.9999" >
		</node>
		<node id="1185" x="288613.0" y="6243677.9999" >
		</node>
		<node id="11853" x="300070.0" y="6263478.9999" >
		</node>
		<node id="11854" x="294671.0" y="6275368.9999" >
		</node>
		<node id="11855" x="294924.0" y="6271417.9999" >
		</node>
		<node id="11856" x="299230.0" y="6269829.9999" >
		</node>
		<node id="11857" x="300480.0" y="6270146.9999" >
		</node>
		<node id="11858" x="302516.0" y="6269493.9999" >
		</node>
		<node id="11859" x="316565.6875" y="6270170.9999" >
		</node>
		<node id="1186" x="295154.0" y="6248480.9999" >
		</node>
		<node id="11860" x="317593.8125" y="6270315.4999" >
		</node>
		<node id="11861" x="312814.0" y="6265895.9999" >
		</node>
		<node id="11864" x="312258.0" y="6268225.9999" >
		</node>
		<node id="11866" x="310419.0" y="6270327.9999" >
		</node>
		<node id="1187" x="295102.0" y="6247412.9999" >
		</node>
		<node id="1188" x="298985.0" y="6248635.9999" >
		</node>
		<node id="1189" x="293924.0" y="6245910.9999" >
		</node>
		<node id="1190" x="295021.0" y="6245409.9999" >
		</node>
		<node id="1191" x="293676.0" y="6244568.9999" >
		</node>
		<node id="1192" x="294884.0" y="6244371.9999" >
		</node>
		<node id="1193" x="291383.9687999999" y="6244330.4999" >
		</node>
		<node id="1194" x="290261.0" y="6243768.9999" >
		</node>
		<node id="1195" x="289707.0" y="6242818.9999" >
		</node>
		<node id="1196" x="291576.0" y="6243107.9999" >
		</node>
		<node id="1199" x="296895.0" y="6245209.9999" >
		</node>
		<node id="1200" x="298507.0" y="6245172.9999" >
		</node>
		<node id="12005" x="290229.0" y="6261908.9999" >
		</node>
		<node id="12007" x="293082.0" y="6267303.9999" >
		</node>
		<node id="12008" x="292065.0" y="6267442.9999" >
		</node>
		<node id="1201" x="298356.0" y="6244078.9999" >
		</node>
		<node id="12011" x="293393.0" y="6267147.9999" >
		</node>
		<node id="12016" x="293458.0" y="6266826.9999" >
		</node>
		<node id="1202" x="297458.0" y="6243381.9999" >
		</node>
		<node id="12091" x="311035.0" y="6268771.9999" >
		</node>
		<node id="12140" x="295899.0" y="6264453.9999" >
		</node>
		<node id="12220" x="310688.3125" y="6267905.9999" >
		</node>
		<node id="12224" x="303484.0" y="6265507.9999" >
		</node>
		<node id="12247" x="287645.0" y="6278250.9999" >
		</node>
		<node id="12251" x="290344.9687999999" y="6277260.4999" >
		</node>
		<node id="12324" x="293956.0" y="6276297.9999" >
		</node>
		<node id="12524" x="307256.6875" y="6268832.4999" >
		</node>
		<node id="12612" x="307619.9062999999" y="6266046.4999" >
		</node>
		<node id="12617" x="307024.0" y="6267194.9999" >
		</node>
		<node id="12630" x="306251.0" y="6261933.9999" >
		</node>
		<node id="12662" x="297656.0" y="6279497.9999" >
		</node>
		<node id="12674" x="298320.0" y="6244651.9999" >
		</node>
		<node id="12675" x="298374.0" y="6245293.9999" >
		</node>
		<node id="12680" x="301111.1875" y="6244122.4999" >
		</node>
		<node id="12681" x="298002.0" y="6244697.9999" >
		</node>
		<node id="12683" x="295534.0" y="6246498.9999" >
		</node>
		<node id="12684" x="295326.0" y="6245076.9999" >
		</node>